<?xml version="1.0" encoding="UTF-8"?>

<!-- generated on 2023-05-06 12:56:30 by Eclipse SUMO netedit Version 1.16.0
-->

<routes xmlns:xsi="http://www.w3.org/2001/XMLSchema-instance" xsi:noNamespaceSchemaLocation="http://sumo.dlr.de/xsd/routes_file.xsd">
    <!-- VTypes -->
    <vType id="car" length="5" maxSpeed="55.55" vClass="private" accel="3.5" decel="2.2" sigma="1.0"/>
    <!-- Routes -->
    <route id="route1" edges="E1 E2 E3 E4 E5 E6 E7 E8 E9" repeat="1000"/>
	<route id="route2" edges="E2 E3 E4 E5 E6 E7 E8 E9 E1" repeat="1000"/>
	<route id="route3" edges="E3 E4 E5 E6 E7 E8 E9 E1 E2" repeat="1000"/>

    <!-- Vehicles, persons and containers (sorted by depart) -->
    <vehicle id="yellow1"  type="car" depart="0" color="yellow" route="route1" 
	departEdge="random" departSpeed ="random" departPos="random_free" departLane="random"/>
    <vehicle id="blue1"    type="car" depart="0" color="blue"   route="route2" 
	departEdge="random" departSpeed ="random" departPos="random_free" departLane="random"/>
    <vehicle id="red1"     type="car" depart="0" color="red"    route="route3" 
	departEdge="random" departSpeed ="random" departPos="random_free" departLane="random"/>
    <vehicle id="yellow2"  type="car" depart="1" color="yellow" route="route1" 
	departEdge="random" departSpeed ="random" departPos="random_free" departLane="random"/>
    <vehicle id="blue2"    type="car" depart="1" color="blue"   route="route2" 
	departEdge="random" departSpeed ="random" departPos="random_free" departLane="random"/>
    <vehicle id="red2"     type="car" depart="1" color="red"    route="route3" 
	departEdge="random" departSpeed ="random" departPos="random_free" departLane="random"/>
    <vehicle id="yellow3"  type="car" depart="2" color="yellow" route="route1" 
	departEdge="random" departSpeed ="random" departPos="random_free" departLane="random"/>
    <vehicle id="blue3"    type="car" depart="2" color="blue"   route="route2" 
	departEdge="random" departSpeed ="random" departPos="random_free" departLane="random"/>
    <vehicle id="red3"     type="car" depart="2" color="red"    route="route3" 
	departEdge="random" departSpeed ="random" departPos="random_free" departLane="random"/>
    <vehicle id="yellow4"  type="car" depart="3" color="yellow" route="route1" 
	departEdge="random" departSpeed ="random" departPos="random_free" departLane="random"/>
    <vehicle id="blue4"    type="car" depart="3" color="blue"   route="route2" 
	departEdge="random" departSpeed ="random" departPos="random_free" departLane="random"/>
    <vehicle id="red4"     type="car" depart="3" color="red"    route="route3" 
	departEdge="random" departSpeed ="random" departPos="random_free" departLane="random"/>
    <vehicle id="yellow5"  type="car" depart="4" color="yellow" route="route1" 
	departEdge="random" departSpeed ="random" departPos="random_free" departLane="random"/>
    <vehicle id="blue5"    type="car" depart="4" color="blue"   route="route2" 
	departEdge="random" departSpeed ="random" departPos="random_free" departLane="random"/>
    <vehicle id="red5"     type="car" depart="4" color="red"    route="route3" 
	departEdge="random" departSpeed ="random" departPos="random_free" departLane="random"/>
	<vehicle id="yellow6"  type="car" depart="5" color="yellow" route="route1" 
	departEdge="random" departSpeed ="random" departPos="random_free" departLane="random"/>
    <vehicle id="blue6"    type="car" depart="5" color="blue"   route="route2" 
	departEdge="random" departSpeed ="random" departPos="random_free" departLane="random"/>
    <vehicle id="red6"     type="car" depart="5" color="red"    route="route3" 
	departEdge="random" departSpeed ="random" departPos="random_free" departLane="random"/>
	<vehicle id="yellow7"  type="car" depart="6" color="yellow" route="route1" 
	departEdge="random" departSpeed ="random" departPos="random_free" departLane="random"/>
    <vehicle id="blue7"    type="car" depart="6" color="blue"   route="route2" 
	departEdge="random" departSpeed ="random" departPos="random_free" departLane="random"/>
    <vehicle id="red7"     type="car" depart="6" color="red"    route="route3" 
	departEdge="random" departSpeed ="random" departPos="random_free" departLane="random"/>
	<vehicle id="yellow8"  type="car" depart="7" color="yellow" route="route1" 
	departEdge="random" departSpeed ="random" departPos="random_free" departLane="random"/>
    <vehicle id="blue8"    type="car" depart="7" color="blue"   route="route2" 
	departEdge="random" departSpeed ="random" departPos="random_free" departLane="random"/>
    <vehicle id="red8"     type="car" depart="7" color="red"    route="route3" 
	departEdge="random" departSpeed ="random" departPos="random_free" departLane="random"/>
	<vehicle id="yellow9"  type="car" depart="8" color="yellow" route="route1" 
	departEdge="random" departSpeed ="random" departPos="random_free" departLane="random"/>
    <vehicle id="blue9"    type="car" depart="8" color="blue"   route="route2" 
	departEdge="random" departSpeed ="random" departPos="random_free" departLane="random"/>
    <vehicle id="red9"     type="car" depart="8" color="red"    route="route3" 
	departEdge="random" departSpeed ="random" departPos="random_free" departLane="random"/>
	<vehicle id="yellow10" type="car" depart="9" color="yellow" route="route1" 
	departEdge="random" departSpeed ="random" departPos="random_free" departLane="random"/>
    <vehicle id="blue10"   type="car" depart="9" color="blue"   route="route2" 
	departEdge="random" departSpeed ="random" departPos="random_free" departLane="random"/>
    <vehicle id="red10"    type="car" depart="9" color="red"    route="route3" 
	departEdge="random" departSpeed ="random" departPos="random_free" departLane="random"/>
</routes>
