<configuration>

    <input>
        <net-file value="project.net.xml"/>
        <route-files value="project.rou.xml"/>
		<!--<additional-files value="project.add.xml"/>-->
		<gui-settings-file value="project.settings.xml"/>
    </input>
	<!--<time>
        <begin value="0"/>
        <end value="300"/>
		<step-length value="0.1"/>
    </time>-->
</configuration>